
     RDKit          3D

 50 53  0  0  0  0  0  0  0  0999 V2000
    4.5821    0.9086   26.0822 H   0  0  0  0  0  0  0  0  0  0  0  0
    4.6395    0.0529   26.5200 O   0  0  0  0  0  0  0  0  0  0  0  0
    5.5486   -0.6947   25.8518 C   0  0  0  0  0  0  0  0  0  0  0  0
    5.7670   -1.9769   26.3364 C   0  0  0  0  0  0  0  0  0  0  0  0
    5.2291   -2.3391   27.2024 H   0  0  0  0  0  0  0  0  0  0  0  0
    6.6851   -2.7794   25.6756 C   0  0  0  0  0  0  0  0  0  0  0  0
    6.8875   -4.0225   26.1632 O   0  0  0  0  0  0  0  0  0  0  0  0
    7.5290   -4.4475   25.5826 H   0  0  0  0  0  0  0  0  0  0  0  0
    7.3704   -2.3301   24.5472 C   0  0  0  0  0  0  0  0  0  0  0  0
    8.0297   -2.9974   24.0005 H   0  0  0  0  0  0  0  0  0  0  0  0
    7.1972   -1.0170   24.1138 C   0  0  0  0  0  0  0  0  0  0  0  0
    8.0236   -0.5114   23.0028 C   0  0  0  0  0  0  0  0  0  0  0  0
    8.9456    0.5177   23.1330 C   0  0  0  0  0  0  0  0  0  0  0  0
    9.4169    1.0114   24.7646 S   0  0  0  0  0  0  0  0  0  0  0  0
   10.2063    2.0133   24.3611 H   0  0  0  0  0  0  0  0  0  0  0  0
    9.4958    1.1715   21.9855 C   0  0  0  0  0  0  0  0  0  0  0  0
   10.4750    2.3032   22.0134 C   0  0  0  0  0  0  0  0  0  0  0  0
   10.0284    3.6291   21.9426 C   0  0  0  0  0  0  0  0  0  0  0  0
    8.9679    3.8514   21.9011 H   0  0  0  0  0  0  0  0  0  0  0  0
   10.9435    4.6760   21.8296 C   0  0  0  0  0  0  0  0  0  0  0  0
   10.5748    5.6894   21.7153 H   0  0  0  0  0  0  0  0  0  0  0  0
   12.3127    4.4141   21.8771 C   0  0  0  0  0  0  0  0  0  0  0  0
   13.0542    5.2037   21.8242 H   0  0  0  0  0  0  0  0  0  0  0  0
   12.7660    3.0943   21.9917 C   0  0  0  0  0  0  0  0  0  0  0  0
   14.1357    2.7766   22.2171 N   0  0  0  0  0  0  0  0  0  0  0  0
   14.5607    2.2841   21.4417 H   0  0  0  0  0  0  0  0  0  0  0  0
   14.9418    3.9122   22.4371 O   0  0  0  0  0  0  0  0  0  0  0  0
   15.0479    4.2833   23.7729 C   0  0  0  0  0  0  0  0  0  0  0  0
   14.3161    3.7037   24.8170 C   0  0  0  0  0  0  0  0  0  0  0  0
   13.6442    2.8835   24.5832 H   0  0  0  0  0  0  0  0  0  0  0  0
   14.4477    4.1819   26.1208 C   0  0  0  0  0  0  0  0  0  0  0  0
   13.8746    3.7553   26.9411 H   0  0  0  0  0  0  0  0  0  0  0  0
   15.3368    5.2239   26.3668 C   0  0  0  0  0  0  0  0  0  0  0  0
   15.4774    5.6782   27.6238 F   0  0  0  0  0  0  0  0  0  0  0  0
   16.0804    5.8106   25.3431 C   0  0  0  0  0  0  0  0  0  0  0  0
   16.7739    6.6131   25.5798 H   0  0  0  0  0  0  0  0  0  0  0  0
   15.9262    5.3396   24.0382 C   0  0  0  0  0  0  0  0  0  0  0  0
   16.4680    5.7772   23.2053 H   0  0  0  0  0  0  0  0  0  0  0  0
   11.8500    2.0375   21.9826 C   0  0  0  0  0  0  0  0  0  0  0  0
   12.2124    1.0137   21.9838 H   0  0  0  0  0  0  0  0  0  0  0  0
    9.0618    0.7103   20.7545 C   0  0  0  0  0  0  0  0  0  0  0  0
    9.2304    1.3218   19.5275 N   0  0  0  0  0  0  0  0  0  0  0  0
    9.4351    2.4462   19.1343 C   0  0  0  0  0  0  0  0  0  0  0  0
    9.6429    3.8919   18.5490 S   0  0  0  0  0  0  0  0  0  0  0  0
    8.3793   -0.4325   20.6484 N   0  0  0  0  0  0  0  0  0  0  0  0
    8.1981   -0.8323   19.7442 H   0  0  0  0  0  0  0  0  0  0  0  0
    7.8450   -1.1494   21.7020 C   0  0  0  0  0  0  0  0  0  0  0  0
    7.2659   -2.1815   21.4315 O   0  0  0  0  0  0  0  0  0  0  0  0
    6.2467   -0.2028   24.7461 C   0  0  0  0  0  0  0  0  0  0  0  0
    6.0864    0.8073   24.3804 H   0  0  0  0  0  0  0  0  0  0  0  0
  1  2  1  0
  2  3  1  0
  3  4  2  0
  4  5  1  0
  4  6  1  0
  6  7  1  0
  7  8  1  0
  6  9  2  0
  9 10  1  0
  9 11  1  0
 11 12  1  0
 12 13  2  0
 13 14  1  0
 14 15  1  0
 13 16  1  0
 16 17  1  0
 17 18  2  0
 18 19  1  0
 18 20  1  0
 20 21  1  0
 20 22  2  0
 22 23  1  0
 22 24  1  0
 24 25  1  0
 25 26  1  0
 25 27  1  0
 27 28  1  0
 28 29  2  0
 29 30  1  0
 29 31  1  0
 31 32  1  0
 31 33  2  0
 33 34  1  0
 33 35  1  0
 35 36  1  0
 35 37  2  0
 37 38  1  0
 24 39  2  0
 39 40  1  0
 16 41  2  0
 41 42  1  0
 42 43  2  0
 43 44  2  0
 41 45  1  0
 45 46  1  0
 45 47  1  0
 47 48  2  0
 11 49  2  0
 49 50  1  0
 49  3  1  0
 47 12  1  0
 39 17  1  0
 37 28  1  0
M  END
$$$$
