
     RDKit          3D

 47 47  0  0  0  0  0  0  0  0999 V2000
   19.6553    4.7670   19.1203 H   0  0  0  0  0  0  0  0  0  0  0  0
   18.5305    4.4815   18.4557 S   0  0  0  0  0  0  0  0  0  0  0  0
   17.4918    5.5075   19.5353 C   0  0  0  0  0  0  0  0  0  0  0  0
   16.4687    5.4535   19.1246 H   0  0  0  0  0  0  0  0  0  0  0  0
   17.8374    6.5440   19.4510 H   0  0  0  0  0  0  0  0  0  0  0  0
   17.5694    5.1054   20.9171 N   0  0  0  0  0  0  0  0  0  0  0  0
   17.3572    6.1971   21.8614 C   0  0  0  0  0  0  0  0  0  0  0  0
   18.1422    6.9498   21.7346 H   0  0  0  0  0  0  0  0  0  0  0  0
   17.4230    5.8162   22.8880 H   0  0  0  0  0  0  0  0  0  0  0  0
   16.3781    6.7071   21.7579 H   0  0  0  0  0  0  0  0  0  0  0  0
   16.8687    3.8638   21.2378 C   0  0  0  0  0  0  0  0  0  0  0  0
   17.0850    3.1313   20.4458 H   0  0  0  0  0  0  0  0  0  0  0  0
   17.3068    3.4555   22.1624 H   0  0  0  0  0  0  0  0  0  0  0  0
   15.3466    4.0446   21.4336 C   0  0  0  0  0  0  0  0  0  0  0  0
   15.1910    4.5686   22.3913 H   0  0  0  0  0  0  0  0  0  0  0  0
   14.9737    4.7231   20.6470 H   0  0  0  0  0  0  0  0  0  0  0  0
   14.4833    2.7557   21.4235 C   0  0  0  0  0  0  0  0  0  0  0  0
   15.0206    1.7429   22.4578 C   0  0  0  0  0  0  0  0  0  0  0  0
   16.0439    1.4339   22.2152 H   0  0  0  0  0  0  0  0  0  0  0  0
   15.0295    2.1712   23.4704 H   0  0  0  0  0  0  0  0  0  0  0  0
   14.4054    0.8348   22.4828 H   0  0  0  0  0  0  0  0  0  0  0  0
   14.4819    2.1236   20.0177 C   0  0  0  0  0  0  0  0  0  0  0  0
   15.4766    1.7630   19.7345 H   0  0  0  0  0  0  0  0  0  0  0  0
   14.1629    2.8478   19.2558 H   0  0  0  0  0  0  0  0  0  0  0  0
   13.7864    1.2789   19.9900 H   0  0  0  0  0  0  0  0  0  0  0  0
   13.0380    3.1798   21.8045 C   0  0  0  0  0  0  0  0  0  0  0  0
   13.0789    3.6936   22.7854 H   0  0  0  0  0  0  0  0  0  0  0  0
   12.7030    3.9318   21.0717 H   0  0  0  0  0  0  0  0  0  0  0  0
   12.0702    2.0898   21.7951 N   0  0  0  0  0  0  0  0  0  0  0  0
   12.1862    1.4903   22.6099 H   0  0  0  0  0  0  0  0  0  0  0  0
   10.6746    2.5130   21.7350 C   0  0  0  0  0  0  0  0  0  0  0  0
   10.3653    3.1717   22.5618 H   0  0  0  0  0  0  0  0  0  0  0  0
   10.5497    3.0820   20.7981 H   0  0  0  0  0  0  0  0  0  0  0  0
    9.7667    1.3027   21.6954 C   0  0  0  0  0  0  0  0  0  0  0  0
    9.0492    0.8402   22.8737 C   0  0  0  0  0  0  0  0  0  0  0  0
    9.1714    1.5478   24.2152 C   0  0  0  0  0  0  0  0  0  0  0  0
    8.6179    1.0111   24.9892 H   0  0  0  0  0  0  0  0  0  0  0  0
   10.4780    1.6486   24.6090 F   0  0  0  0  0  0  0  0  0  0  0  0
    8.6887    2.8223   24.1588 F   0  0  0  0  0  0  0  0  0  0  0  0
    8.2497   -0.2671   22.7746 C   0  0  0  0  0  0  0  0  0  0  0  0
    7.6761   -0.6894   23.5930 H   0  0  0  0  0  0  0  0  0  0  0  0
    8.0991   -0.9994   21.5215 C   0  0  0  0  0  0  0  0  0  0  0  0
    7.4194   -1.9907   21.3098 O   0  0  0  0  0  0  0  0  0  0  0  0
    8.8275   -0.4840   20.4629 N   0  0  0  0  0  0  0  0  0  0  0  0
    8.6716   -1.0697   19.6547 H   0  0  0  0  0  0  0  0  0  0  0  0
    9.6419    0.6108   20.5287 C   0  0  0  0  0  0  0  0  0  0  0  0
   10.1723    0.8889   19.6187 H   0  0  0  0  0  0  0  0  0  0  0  0
  1  2  1  0
  2  3  1  0
  3  4  1  0
  3  5  1  0
  3  6  1  0
  6  7  1  0
  7  8  1  0
  7  9  1  0
  7 10  1  0
  6 11  1  0
 11 12  1  0
 11 13  1  0
 11 14  1  0
 14 15  1  0
 14 16  1  0
 14 17  1  0
 17 18  1  0
 18 19  1  0
 18 20  1  0
 18 21  1  0
 17 22  1  0
 22 23  1  0
 22 24  1  0
 22 25  1  0
 17 26  1  0
 26 27  1  0
 26 28  1  0
 26 29  1  0
 29 30  1  0
 29 31  1  0
 31 32  1  0
 31 33  1  0
 31 34  1  0
 34 35  1  0
 35 36  1  0
 36 37  1  0
 36 38  1  0
 36 39  1  0
 35 40  2  0
 40 41  1  0
 40 42  1  0
 42 43  2  0
 42 44  1  0
 44 45  1  0
 44 46  1  0
 46 47  1  0
 46 34  2  0
M  END
$$$$
