
     RDKit          3D

 61 63  0  0  0  0  0  0  0  0999 V2000
   15.4131   -1.5106   22.5604 H   0  0  0  0  0  0  0  0  0  0  0  0
   15.9824   -1.0097   21.9612 O   0  0  0  0  0  0  0  0  0  0  0  0
   15.1761    0.0476   21.4547 C   0  0  0  0  0  0  0  0  0  0  0  0
   13.9542   -0.5196   20.6327 C   0  0  0  0  0  0  0  0  0  0  0  0
   13.8992   -1.8481   20.3334 C   0  0  0  0  0  0  0  0  0  0  0  0
   14.7988   -2.4474   20.5011 H   0  0  0  0  0  0  0  0  0  0  0  0
   12.2394   -4.4401   28.8555 C   0  0  0  0  0  0  0  0  0  0  0  0
   12.9454   -2.3325   19.9527 H   0  0  0  0  0  0  0  0  0  0  0  0
   11.5063   -1.4881   19.3980 C   0  0  0  0  0  0  0  0  0  0  0  0
   10.7011   -1.9185   18.8176 H   0  0  0  0  0  0  0  0  0  0  0  0
   11.7571   -0.1855   19.5613 C   0  0  0  0  0  0  0  0  0  0  0  0
   10.4515    1.0159   19.0510 S   0  0  0  0  0  0  0  0  0  0  0  0
    9.4913    0.7222   20.5031 C   0  0  0  0  0  0  0  0  0  0  0  0
    9.6821    1.3593   21.7089 C   0  0  0  0  0  0  0  0  0  0  0  0
   10.6548    2.4892   21.8844 C   0  0  0  0  0  0  0  0  0  0  0  0
   11.4669    2.1563   22.5530 H   0  0  0  0  0  0  0  0  0  0  0  0
   11.1247    2.7701   20.9254 H   0  0  0  0  0  0  0  0  0  0  0  0
    9.9886    3.6087   22.5188 N   0  0  0  0  0  0  0  0  0  0  0  0
    9.2005    3.9156   21.9592 H   0  0  0  0  0  0  0  0  0  0  0  0
   10.8572    4.7276   22.8546 C   0  0  0  0  0  0  0  0  0  0  0  0
   11.4914    5.0653   22.0128 H   0  0  0  0  0  0  0  0  0  0  0  0
   10.1931    5.5572   23.1092 H   0  0  0  0  0  0  0  0  0  0  0  0
   11.7594    4.4158   24.0416 C   0  0  0  0  0  0  0  0  0  0  0  0
   13.1511    4.2791   23.8822 C   0  0  0  0  0  0  0  0  0  0  0  0
   13.6000    4.4368   22.9045 H   0  0  0  0  0  0  0  0  0  0  0  0
   13.9740    3.9138   24.9528 C   0  0  0  0  0  0  0  0  0  0  0  0
   15.3612    3.7690   24.7454 N   0  0  0  0  0  0  0  0  0  0  0  0
   15.7794    4.3511   24.0441 H   0  0  0  0  0  0  0  0  0  0  0  0
   16.1937    2.9412   25.4562 C   0  0  0  0  0  0  0  0  0  0  0  0
   15.7780    2.0954   26.2226 O   0  0  0  0  0  0  0  0  0  0  0  0
   17.6780    3.1304   25.1919 C   0  0  0  0  0  0  0  0  0  0  0  0
   17.9021    4.1989   25.0939 H   0  0  0  0  0  0  0  0  0  0  0  0
   18.1783    2.7737   26.0953 H   0  0  0  0  0  0  0  0  0  0  0  0
   18.1985    2.3608   23.9698 C   0  0  0  0  0  0  0  0  0  0  0  0
   19.2841    2.4769   23.8896 H   0  0  0  0  0  0  0  0  0  0  0  0
   17.7563    2.7287   23.0363 H   0  0  0  0  0  0  0  0  0  0  0  0
   17.9873    1.2870   24.0454 H   0  0  0  0  0  0  0  0  0  0  0  0
   13.4210    3.7276   26.2213 C   0  0  0  0  0  0  0  0  0  0  0  0
   14.0735    3.4646   27.0416 H   0  0  0  0  0  0  0  0  0  0  0  0
   12.0517    3.8841   26.4079 C   0  0  0  0  0  0  0  0  0  0  0  0
   11.6095    3.7459   27.3897 H   0  0  0  0  0  0  0  0  0  0  0  0
   11.2302    4.2095   25.3293 C   0  0  0  0  0  0  0  0  0  0  0  0
    9.5187    4.3603   25.6445 Cl  0  0  0  0  0  0  0  0  0  0  0  0
    8.9924    0.8559   22.8568 C   0  0  0  0  0  0  0  0  0  0  0  0
    9.1120    1.3924   23.8016 H   0  0  0  0  0  0  0  0  0  0  0  0
    8.2040   -0.2564   22.7764 C   0  0  0  0  0  0  0  0  0  0  0  0
    7.6932   -0.6954   23.6168 H   0  0  0  0  0  0  0  0  0  0  0  0
    8.0437   -0.9722   21.5177 C   0  0  0  0  0  0  0  0  0  0  0  0
    7.4144   -1.9950   21.3293 O   0  0  0  0  0  0  0  0  0  0  0  0
    8.6966   -0.3870   20.4412 N   0  0  0  0  0  0  0  0  0  0  0  0
    8.6490   -0.9677   19.6186 H   0  0  0  0  0  0  0  0  0  0  0  0
   12.9132    0.3527   20.2226 C   0  0  0  0  0  0  0  0  0  0  0  0
   12.9675    1.4231   20.3766 H   0  0  0  0  0  0  0  0  0  0  0  0
   16.1172    0.8654   20.5724 C   0  0  0  0  0  0  0  0  0  0  0  0
   15.6041    1.7337   20.1470 H   0  0  0  0  0  0  0  0  0  0  0  0
   16.9767    1.2364   21.1479 H   0  0  0  0  0  0  0  0  0  0  0  0
   16.5086    0.2424   19.7613 H   0  0  0  0  0  0  0  0  0  0  0  0
   14.6752    0.8564   22.6633 C   0  0  0  0  0  0  0  0  0  0  0  0
   13.9090    0.2720   23.1861 H   0  0  0  0  0  0  0  0  0  0  0  0
   15.4861    1.0529   23.3765 H   0  0  0  0  0  0  0  0  0  0  0  0
   14.2555    1.8258   22.3678 H   0  0  0  0  0  0  0  0  0  0  0  0
  1  2  1  0
  2  3  1  0
  3  4  1  0
  4  5  2  0
  5  6  1  0
  5  7  1  0
  7  8  1  0
  7  9  2  0
  9 10  1  0
  9 11  1  0
 11 12  1  0
 12 13  1  0
 13 14  2  0
 14 15  1  0
 15 16  1  0
 15 17  1  0
 15 18  1  0
 18 19  1  0
 18 20  1  0
 20 21  1  0
 20 22  1  0
 20 23  1  0
 23 24  2  0
 24 25  1  0
 24 26  1  0
 26 27  1  0
 27 28  1  0
 27 29  1  0
 29 30  2  0
 29 31  1  0
 31 32  1  0
 31 33  1  0
 31 34  1  0
 34 35  1  0
 34 36  1  0
 34 37  1  0
 26 38  2  0
 38 39  1  0
 38 40  1  0
 40 41  1  0
 40 42  2  0
 42 43  1  0
 14 44  1  0
 44 45  1  0
 44 46  2  0
 46 47  1  0
 46 48  1  0
 48 49  2  0
 48 50  1  0
 50 51  1  0
 11 52  2  0
 52 53  1  0
  3 54  1  0
 54 55  1  0
 54 56  1  0
 54 57  1  0
  3 58  1  0
 58 59  1  0
 58 60  1  0
 58 61  1  0
 52  4  1  0
 50 13  1  0
 42 23  1  0
M  END
$$$$
